Circuit: * C:\Users\Daniel Teran\Documents\DANNYT\UC3M\DCEC\DCEC\tools\filtro_Completo.asc

Ignoring BSIM parameter XL
Ignoring BSIM parameter XW
Warning: Pd = 0 is less than W.
Warning: Ps = 0 is less than W.
Direct Newton iteration failed to find .op point.  (Use ".option noopiter" to skip.)
Starting Gmin stepping
Gmin = 10
Gmin = 1.07374
Gmin = 0.115292
Gmin = 0.0123794
Gmin = 0.00132923
Gmin = 0.000142725
Gmin = 1.5325e-005
Gmin = 1.6455e-006
Gmin = 1.76685e-007
Gmin = 1.89714e-008
Gmin = 2.03704e-009
Gmin = 2.18725e-010
Gmin = 2.34854e-011
Gmin = 2.52173e-012
Gmin = 2.70769e-013
Gmin = 0
Gmin stepping succeeded in finding the operating point.


Date: Thu Oct 13 16:03:05 2022
Total elapsed time: 13.337 seconds.

tnom = 27
temp = 27
method = modified trap
totiter = 625872
traniter = 625450
tranpoints = 235342
accept = 184321
rejected = 51021
matrix size = 24
fillins = 12
solver = Normal
Matrix Compiler1: 2.09 KB object code size  0.5/0.2/[0.1]
Matrix Compiler2: 3.10 KB object code size  0.3/0.3/[0.2]

