Circuit: * C:\Users\Daniel Teran\Documents\DANNYT\UC3M\DCEC\Trabajo_EVA_Bloque1\tools\filtro_Completo.asc

Ignoring BSIM parameter XL
Ignoring BSIM parameter XW
Unknown node in .ic card: "vbp" -- ignoring
WARNING: Less than two connections to node N009.  This node is used by M4.
WARNING: Less than two connections to node N007.  This node is used by M12.
Warning: Pd = 0 is less than W.
Warning: Ps = 0 is less than W.
Direct Newton iteration failed to find .op point.  (Use ".option noopiter" to skip.)
Starting Gmin stepping
Gmin = 10
Gmin = 1.07374
Gmin = 0.115292
Gmin = 0.0123794
Gmin = 0.00132923
Gmin = 0.000142725
Gmin = 1.5325e-005
Gmin = 1.6455e-006
Gmin = 1.76685e-007
Gmin = 1.89714e-008
Gmin = 2.03704e-009
Gmin = 2.18725e-010
Gmin = 2.34854e-011
Gmin = 2.52173e-012
Gmin = 2.70769e-013
Gmin = 0
Gmin stepping succeeded in finding the operating point.


Date: Thu Oct 06 19:36:14 2022
Total elapsed time: 0.267 seconds.

tnom = 27
temp = 27
method = trap
totiter = 430
traniter = 0
tranpoints = 0
accept = 0
rejected = 0
matrix size = 26
fillins = 2
solver = Normal
Matrix Compiler1:     101 opcodes
Matrix Compiler2: off  [0.3]/0.4/0.6

